MESH_FILENAME=pre/cartesian_mesh_0-05.cgns
GEOMETRY_FILENAME=pre/circle_geometry.cgns
OUTPUT_FILENAME=output/output.cgns
CGNS_OUTPUT_FREQ=100

#INITIAL_SOLUTION=output/mesh_0-01/M08_A125.cgns

X_REF=0.5   #CHANGE WHEN USING CIRCLE
Y_REF=0.0

MACH=0.5
ALPHA=0.0
GAMMA=1.4
K2=0.5
K4=0.015625

CFL=3.6
IT_MAX=1000
CONV_TOL=1e-11
RESIDUAL_SMOOTHING=true