MESH_FILENAME=pre/cartesian_mesh_0-01.cgns
GEOMETRY_FILENAME=pre/naca0012_geometry.cgns
OUTPUT_FILENAME=output/output.cgns
CGNS_OUTPUT_FREQ=10000

X_REF=0.25
Y_REF=0.0

MACH=0.5
ALPHA=0.0
GAMMA=1.4
K2=0.5
K4=0.0078125

CFL=3.6
IT_MAX=20000
CONV_TOL=1e-11
RESIDUAL_SMOOTHING=true