MESH_FILENAME=pre/cartesian_mesh_0-005.cgns
GEOMETRY_FILENAME=pre/naca0012_geometry.cgns
OUTPUT_FILENAME=output/output_M08_A0.cgns
CGNS_OUTPUT_FREQ=1000

X_REF=0.25
Y_REF=0.0

MACH=0.8
ALPHA=0.0
GAMMA=1.4
K2=0.5
K4=0.015625

CFL=3.6
IT_MAX=50000
CONV_TOL=1e-11
RESIDUAL_SMOOTHING=true